/*--------------------------------*- C++ -*----------------------------------*\
| =========                 |                                                 |
| \\      /  F ield         | OpenFOAM: The Open Source CFD Toolbox           |
|  \\    /   O peration     | Version:  2406                                  |
|   \\  /    A nd           | Website:  www.openfoam.com                      |
|    \\/     M anipulation  |                                                 |
\*---------------------------------------------------------------------------*/
FoamFile
{
    version     2.0;
    format      ascii;
    arch        "LSB;label=32;scalar=64";
    class       polyBoundaryMesh;
    location    "constant/polyMesh";
    object      boundary;
}
// * * * * * * * * * * * * * * * * * * * * * * * * * * * * * * * * * * * * * //

5
(
    inlet
    {
        type            patch;
        nFaces          240;
        startFace       229680;
    }
    outlet
    {
        type            patch;
        nFaces          240;
        startFace       229920;
    }
    bottom
    {
        type            symmetryPlane;
        inGroups        1(symmetryPlane);
        nFaces          480;
        startFace       230160;
    }
    top
    {
        type            wall;
        inGroups        1(wall);
        nFaces          480;
        startFace       230640;
    }
    emptyPlanes
    {
        type            empty;
        inGroups        1(empty);
        nFaces          230400;
        startFace       231120;
    }
)

// ************************************************************************* //
