/*--------------------------------*- C++ -*----------------------------------*\
| =========                 |                                                 |
| \\      /  F ield         | OpenFOAM: The Open Source CFD Toolbox           |
|  \\    /   O peration     | Version:  2406                                  |
|   \\  /    A nd           | Website:  www.openfoam.com                      |
|    \\/     M anipulation  |                                                 |
\*---------------------------------------------------------------------------*/
FoamFile
{
    version     2.0;
    format      ascii;
    arch        "LSB;label=32;scalar=64";
    class       volVectorField;
    location    "0";
    object      U.2;
}
// * * * * * * * * * * * * * * * * * * * * * * * * * * * * * * * * * * * * * //

dimensions      [0 1 -1 0 0 0 0];

internalField   uniform (0 0 0);

boundaryField
{
    //inlet
    //{
    //    type            isentropicInletVelocity;
    //    inletDirection  uniform (0.943800516 0.3305143927 0);
    //    value           $internalField;
    //}

    inlet
    {
        type        codedFixedValue;
        value       uniform (0 0 0);

        name        mapFieldTUToTU;
        code
        #{
            const volVectorField& sourceField = db().lookupObject<volVectorField>("U.1");
            operator== (sourceField.boundaryField()[patch().index()]);
        #};
    }
    
    outlet
    {
        type            zeroGradient;
    }

    wall
    {
        type            slip;
    }

    periodic1
    {
        type            cyclic;
    }
    
    periodic2
    {
        type            cyclic;
    }
    
    emptyPlanes
    {
        type            empty;
    }
}


// ************************************************************************* //
