/*--------------------------------*- C++ -*----------------------------------*\
| =========                 |                                                 |
| \\      /  F ield         | OpenFOAM: The Open Source CFD Toolbox           |
|  \\    /   O peration     | Version:  1.6                                   |
|   \\  /    A nd           | Web:      http://www.OpenFOAM.org               |
|    \\/     M anipulation  |                                                 |
\*---------------------------------------------------------------------------*/
FoamFile
{
    version     2.0;
    format      ascii;
    class       volScalarField;
    object      alpha;
}
// * * * * * * * * * * * * * * * * * * * * * * * * * * * * * * * * * * * * * //

dimensions      [0 0 0 0 0 0 0];

internalField   #codeStream
{
    codeInclude
    #{
        #include "fvCFD.H"
    #};

    codeOptions
    #{
        -I$(LIB_SRC)/finiteVolume/lnInclude \
        -I$(LIB_SRC)/meshTools/lnInclude
    #};

    codeLibs
    #{
        -lmeshTools \
        -lfiniteVolume
    #};

    code
    #{
        const scalar epsilon = 1e-5;

        const IOdictionary& d = static_cast<const IOdictionary&>(dict);
        const fvMesh& mesh = refCast<const fvMesh>(d.db());
        scalarField alpha(mesh.nCells(), epsilon);

        const vector center(0, 0, 0);
        const scalar R = 0.0032;
        const scalar delta = 0.000025;

        forAll(mesh.C(), cellI)
        {
            vector pos = mesh.C()[cellI];
            scalar r = mag(pos - center);

            if (R - 2.0*delta <= r && r <= R + 2.0*delta)
            {
                scalar xi = (r - (R - 2.0*delta))/(4.0*delta);
                scalar G = -Foam::pow(xi, 2.0)*(2.0*xi - 3.0);
                alpha[cellI] = G*(epsilon) + (1.0 - G)*(1.0 - epsilon);
            }
            else if(r < R)
            {
                alpha[cellI] = 1.0 - epsilon;
            }
        }

        alpha.writeEntry("", os);
    #};
};

boundaryField
{
    emptyPlanes
    {
        type            empty;
    }

    top
    {
        type            zeroGradient;
    }

    bottom
    {
        type            symmetryPlane;
    }

    inlet
    {
        type            fixedValue;
        value           uniform 1e-5;
    }

    outlet
    {
        type            zeroGradient;
    }
}

// ************************************************************************* //
