/*--------------------------------*- C++ -*----------------------------------*\
| =========                 |                                                 |
| \\      /  F ield         | OpenFOAM: The Open Source CFD Toolbox           |
|  \\    /   O peration     | Version:  1.5                                   |
|   \\  /    A nd           | Web:      http://www.OpenFOAM.org               |
|    \\/     M anipulation  |                                                 |
\*---------------------------------------------------------------------------*/
FoamFile
{
    version     2.0;
    format      ascii;
    class       dictionary;
    object      blockMeshDict;
}
// * * * * * * * * * * * * * * * * * * * * * * * * * * * * * * * * * * * * * //

convertToMeters 1;

vertices
(
    (-0.007 0 0)            // 0
    (0.005 0 0)             // 1
    (0.005 0.006 0)         // 2
    (-0.007 0.006 0)        // 3
    (-0.007 0 0.0001)       // 4 (extruded for 2D case)
    (0.005 0 0.0001)        // 5
    (0.005 0.006 0.0001)    // 6
    (-0.007 0.006 0.0001)   // 7
);


blocks
(
    hex (0 1 2 3 4 5 6 7) (480 240 1) simpleGrading (1 1 1)
);

edges
(
);

boundary
(
    inlet
    {
        type patch;
        faces
        (
            (0 3 7 4)
        );
    }
    outlet
    {
        type patch;
        faces
        (
            (1 2 6 5)
        );
    }
    bottom
    {
        type symmetryPlane;
        faces
        (
            (0 1 5 4)
        );
    }
    top
    {
        type wall;
        faces
        (
            (2 3 7 6)
        );
    }
    emptyPlanes
    {
        type empty;
        faces
        (
            (0 1 2 3)
            (4 5 6 7)
        );
    }
);

mergePatchPairs 
(
);

// ************************************************************************* //
