/*--------------------------------*- C++ -*----------------------------------*\
| =========                 |                                                 |
| \\      /  F ield         | foam-extend: Open Source CFD                    |
|  \\    /   O peration     | Version:     3.2                                |
|   \\  /    A nd           | Web:         http://www.foam-extend.org         |
|    \\/     M anipulation  |                                                 |
\*---------------------------------------------------------------------------*/
FoamFile
{
    version     2.0;
    format      ascii;
    class       dictionary;
    location    "system";
    object      fvSchemes;
}
// * * * * * * * * * * * * * * * * * * * * * * * * * * * * * * * * * * * * * //

ddtSchemes
{
 default         Euler;
}

gradSchemes
{
    default         Gauss linear;
    limitedGauss    cellLimited Gauss linear 1;
    venkatakrishnan cellLimited<Venkatakrishnan> edgeCellsLeastSquares 1;
    grad(U) Gauss linear;
    grad(h) Gauss linear;
}

divSchemes
{
    default         none;
}

laplacianSchemes
{
   default         Gauss linear corrected;
}

interpolationSchemes
{
    default        linear;
    //reconstruct(p) Minmod;
    //reconstruct(U) Minmod;
    //reconstruct(T) Minmod;
    //reconstruct(p) upwind;
    //reconstruct(U) upwind;
    //reconstruct(T) upwind;
    reconstruct(p) linearUpwind venkatakrishnan;
    reconstruct(U) linearUpwindV venkatakrishnan;
    reconstruct(T) linearUpwind venkatakrishnan;
}

snGradSchemes
{
    default         corrected;
}

fluxRequired
{
    default         no;
}


// ************************************************************************* //
